data_image0
_chemical_formula_structural       Au4
_chemical_formula_sum              "Au4"
_cell_length_a       4.167993129799924
_cell_length_b       4.167993126850487
_cell_length_c       4.1679931492621884
_cell_angle_alpha    89.99999993643492
_cell_angle_beta     90.00000001911299
_cell_angle_gamma    89.99999998348389

_space_group_name_H-M_alt    "P 1"
_space_group_IT_number       1

loop_
  _space_group_symop_operation_xyz
  'x, y, z'

loop_
  _atom_site_type_symbol
  _atom_site_label
  _atom_site_symmetry_multiplicity
  _atom_site_fract_x
  _atom_site_fract_y
  _atom_site_fract_z
  _atom_site_occupancy
  Au  Au1       1.0  6.599915767643192e-11  0.9999999994546085  0.9999999993305547  1.0000
  Au  Au2       1.0  1.2620846061738593e-10  0.500000000538486  0.4999999995267151  1.0000
  Au  Au3       1.0  0.49999999991458216  4.4603682119442693e-10  0.4999999984281738  1.0000
  Au  Au4       1.0  0.4999999999665926  0.5000000000474406  9.060533661768891e-10  1.0000
