data_image0
_chemical_formula_structural       Pd2
_chemical_formula_sum              "Pd2"
_cell_length_a       2.7
_cell_length_b       2.7000000000000006
_cell_length_c       4.276800000000001
_cell_angle_alpha    90.0
_cell_angle_beta     90.0
_cell_angle_gamma    120.00000000000001

_space_group_name_H-M_alt    "P 1"
_space_group_IT_number       1

loop_
  _space_group_symop_operation_xyz
  'x, y, z'

loop_
  _atom_site_type_symbol
  _atom_site_label
  _atom_site_symmetry_multiplicity
  _atom_site_fract_x
  _atom_site_fract_y
  _atom_site_fract_z
  _atom_site_occupancy
  Pd  Pd1       1.0  0.0  0.0  0.0  1.0000
  Pd  Pd2       1.0  0.3333333333333333  0.6666666666666666  0.5  1.0000
