data_image0
_chemical_formula_structural       Pt4
_chemical_formula_sum              "Pt4"
_cell_length_a       3.9820077070016953
_cell_length_b       3.982007712945763
_cell_length_c       3.9820076951135577
_cell_angle_alpha    90.00000000783514
_cell_angle_beta     89.99999999739916
_cell_angle_gamma    89.99999998510698

_space_group_name_H-M_alt    "P 1"
_space_group_IT_number       1

loop_
  _space_group_symop_operation_xyz
  'x, y, z'

loop_
  _atom_site_type_symbol
  _atom_site_label
  _atom_site_symmetry_multiplicity
  _atom_site_fract_x
  _atom_site_fract_y
  _atom_site_fract_z
  _atom_site_occupancy
  Pt  Pt1       1.0  6.3214111367806555e-12  0.9999999999836446  2.725230578967661e-10  1.0000
  Pt  Pt2       1.0  0.9999999999582586  0.500000000260081  0.4999999997367082  1.0000
  Pt  Pt3       1.0  0.5000000001316459  4.960802644483105e-10  0.4999999996869396  1.0000
  Pt  Pt4       1.0  0.5000000000754555  0.4999999999462179  0.9999999999788283  1.0000
