data_AlN
_audit_creation_date              2007-10-11
_audit_creation_method            'Materials Studio'
_symmetry_space_group_name_H-M    'P1'
_symmetry_Int_Tables_number       1
_symmetry_cell_setting            triclinic
loop_
_symmetry_equiv_pos_as_xyz
  x,y,z
_cell_length_a                    3.1100
_cell_length_b                    3.1100
_cell_length_c                    4.9801
_cell_angle_alpha                 90.0000
_cell_angle_beta                  90.0000
_cell_angle_gamma                120.0000
loop_
_atom_site_label
_atom_site_type_symbol
_atom_site_fract_x
_atom_site_fract_y
_atom_site_fract_z
_atom_site_Uiso_or_equiv
_atom_site_adp_type
_atom_site_occupancy
A1     Al    0.66667   0.33333   0.00007   0.00000  Uiso   1.00
A2     Al    0.33333   0.66667   0.50007   0.00000  Uiso   1.00
A3     N     0.66667   0.33333   0.38193   0.00000  Uiso   1.00
A4     N     0.33333   0.66667   0.88193   0.00000  Uiso   1.00
