CRYSTAL
PRIMVEC
    2.870000    0.000000    0.000000
    0.000000    2.870000    0.000000
    0.000000    0.000000    2.870000
PRIMCOORD
         2 1
        Fe    1.435000    1.435000    1.435000         0.008740   -0.000852    0.007141
        Fe    0.000000    0.000000    0.000000         0.001340    0.005699   -0.004675
