data_m-HfO2
_audit_creation_date              2007-10-11
_audit_creation_method            'Materials Studio'
_symmetry_space_group_name_H-M    'P1'
_symmetry_Int_Tables_number       1
_symmetry_cell_setting            triclinic
loop_
_symmetry_equiv_pos_as_xyz
  x,y,z
_cell_length_a                    5.1156
_cell_length_b                    5.1722
_cell_length_c                    5.2948
_cell_angle_alpha                 90.0000
_cell_angle_beta                  99.1800
_cell_angle_gamma                 90.0000
loop_
_atom_site_label
_atom_site_type_symbol
_atom_site_fract_x
_atom_site_fract_y
_atom_site_fract_z
_atom_site_Uiso_or_equiv
_atom_site_adp_type
_atom_site_occupancy
A1     Hf    0.27590   0.04120   0.20780   0.00000  Uiso   1.00
A2     Hf    0.27590   0.45880   0.70780   0.00000  Uiso   1.00
A3     Hf    0.72410   0.54120   0.29220   0.00000  Uiso   1.00
A4     Hf    0.72410   0.95880   0.79220   0.00000  Uiso   1.00
A5     O     0.07300   0.34600   0.33200   0.00000  Uiso   1.00
A6     O     0.07300   0.15400   0.83200   0.00000  Uiso   1.00
A7     O     0.92700   0.84600   0.16800   0.00000  Uiso   1.00
A8     O     0.92700   0.65400   0.66800   0.00000  Uiso   1.00
A9     O     0.44600   0.74800   0.48800   0.00000  Uiso   1.00
A10    O     0.44600   0.75200   0.98800   0.00000  Uiso   1.00
A11    O     0.55400   0.24800   0.01200   0.00000  Uiso   1.00
A12    O     0.55400   0.25200   0.51200   0.00000  Uiso   1.00
