CRYSTAL
PRIMVEC
    7.255773    0.000000    0.000000
    0.000000    7.255773    0.000000
    0.000000    0.000000   10.261213
PRIMCOORD
         4 1
        Si    3.627887    3.627887    5.130606         0.000000   -0.000000    0.000000
        Si    0.000000    3.627887    7.695910         0.000000   -0.000000   -0.000000
        Si    0.000000    0.000000   -0.000000         0.000000   -0.000000    0.000000
        Si    3.627887    0.000000    2.565303         0.000000   -0.000000    0.000000
